28
#comment
Si	7.2331	5.6303	1.4311
Si	3.5066	4.1649	3.7466
Si	3.7439	4.4029	6.1381
Si	1.2046	6.8194	1.804
Si	6.3598	2.5463	1.545
Si	2.521	0.5715	6.6093
Si	2.0607	2.9184	6.8341
Si	6.5215	0.1114	5.5149
Si	4.2374	8.0475	3.7113
Si	0.1486	1.3627	2.4519
Si	7.8554	7.8031	0.9504
Si	5.8129	3.4986	3.6258
Si	1.1568	3.4157	3.1582
Si	0.598	7.6622	4.1601
Si	4.7134	3.5004	0.0702
Si	3.4549	1.5513	2.9788
Si	5.4779	7.9052	7.2245
Si	6.767	2.423	5.4612
Si	6.115	7.4555	4.9348
Si	0.4254	3.6882	5.3192
Si	2.0476	0.8262	1.2226
Si	3.4596	6.6185	6.9039
Si	3.5093	6.2045	2.4357
Si	5.2785	0.5306	1.7922
Si	6.9641	5.5412	3.7854
Si	5.6109	3.4492	7.2494
Si	5.0025	5.7376	0.6459
Si	0.1308	4.7647	1.5315
