666

Ar   -3.08300   -3.08300   -3.08300
Ar   -3.08300   -3.08300   -1.54150
Ar   -3.08300   -3.08300    0.00000
Ar   -3.08300   -3.08300    1.54150
Ar   -3.08300   -3.08300    3.08300
Ar   -3.08300   -3.08300    4.62450
Ar   -3.08300   -1.54150   -3.08300
Ar   -3.08300   -1.54150   -1.54150
Ar   -3.08300   -1.54150    0.00000
Ar   -3.08300   -1.54150    1.54150
Ar   -3.08300   -1.54150    3.08300
Ar   -3.08300   -1.54150    4.62450
Ar   -3.08300   -0.00000   -3.08300
Ar   -3.08300   -0.00000   -1.54150
Ar   -3.08300    0.00000    0.00000
Ar   -3.08300    0.00000    1.54150
Ar   -3.08300    0.00000    3.08300
Ar   -3.08300    0.00000    4.62450
Ar   -3.08300    1.54150   -3.08300
Ar   -3.08300    1.54150   -1.54150
Ar   -3.08300    1.54150    0.00000
Ar   -3.08300    1.54150    1.54150
Ar   -3.08300    1.54150    3.08300
Ar   -3.08300    1.54150    4.62450
Ar   -3.08300    3.08300   -3.08300
Ar   -3.08300    3.08300   -1.54150
Ar   -3.08300    3.08300    0.00000
Ar   -3.08300    3.08300    1.54150
Ar   -3.08300    3.08300    3.08300
Ar   -3.08300    3.08300    4.62450
Ar   -3.08300    4.62450   -3.08300
Ar   -3.08300    4.62450   -1.54150
Ar   -3.08300    4.62450    0.00000
Ar   -3.08300    4.62450    1.54150
Ar   -3.08300    4.62450    3.08300
Ar   -3.08300    4.62450    4.62450
Ar   -1.54150   -3.08300   -3.08300
Ar   -1.54150   -3.08300   -1.54150
Ar   -1.54150   -3.08300    0.00000
Ar   -1.54150   -3.08300    1.54150
Ar   -1.54150   -3.08300    3.08300
Ar   -1.54150   -3.08300    4.62450
Ar   -1.54150   -1.54150   -3.08300
Ar   -1.54150   -1.54150   -1.54150
Ar   -1.54150   -1.54150    0.00000
Ar   -1.54150   -1.54150    1.54150
Ar   -1.54150   -1.54150    3.08300
Ar   -1.54150   -1.54150    4.62450
Ar   -1.54150   -0.00000   -3.08300
Ar   -1.54150   -0.00000   -1.54150
Ar   -1.54150    0.00000    0.00000
Ar   -1.54150    0.00000    1.54150
Ar   -1.54150    0.00000    3.08300
Ar   -1.54150    0.00000    4.62450
Ar   -1.54150    1.54150   -3.08300
Ar   -1.54150    1.54150   -1.54150
Ar   -1.54150    1.54150    0.00000
Ar   -1.54150    1.54150    1.54150
Ar   -1.54150    1.54150    3.08300
Ar   -1.54150    1.54150    4.62450
Ar   -1.54150    3.08300   -3.08300
Ar   -1.54150    3.08300   -1.54150
Ar   -1.54150    3.08300    0.00000
Ar   -1.54150    3.08300    1.54150
Ar   -1.54150    3.08300    3.08300
Ar   -1.54150    3.08300    4.62450
Ar   -1.54150    4.62450   -3.08300
Ar   -1.54150    4.62450   -1.54150
Ar   -1.54150    4.62450    0.00000
Ar   -1.54150    4.62450    1.54150
Ar   -1.54150    4.62450    3.08300
Ar   -1.54150    4.62450    4.62450
Ar   -0.00000   -3.08300   -3.08300
Ar   -0.00000   -3.08300   -1.54150
Ar   -0.00000   -3.08300    0.00000
Ar   -0.00000   -3.08300    1.54150
Ar    0.00000   -3.08300    3.08300
Ar    0.00000   -3.08300    4.62450
Ar   -0.00000   -1.54150   -3.08300
Ar   -0.00000   -1.54150   -1.54150
Ar   -0.00000   -1.54150    0.00000
Ar    0.00000   -1.54150    1.54150
Ar    0.00000   -1.54150    3.08300
Ar    0.00000   -1.54150    4.62450
Ar   -0.00000   -0.00000   -3.08300
Ar   -0.00000   -0.00000   -1.54150
Ar    0.00000    0.00000    0.00000
Ar    0.00000    0.00000    1.54150
Ar    0.00000    0.00000    3.08300
Ar    0.00000    0.00000    4.62450
Ar   -0.00000    1.54150   -3.08300
Ar    0.00000    1.54150   -1.54150
Ar    0.00000    1.54150    0.00000
Ar    0.00000    1.54150    1.54150
Ar    0.00000    1.54150    3.08300
Ar    0.00000    1.54150    4.62450
Ar    0.00000    3.08300   -3.08300
Ar    0.00000    3.08300   -1.54150
Ar    0.00000    3.08300    0.00000
Ar    0.00000    3.08300    1.54150
Ar    0.00000    3.08300    3.08300
Ar    0.00000    3.08300    4.62450
Ar    0.00000    4.62450   -3.08300
Ar    0.00000    4.62450   -1.54150
Ar    0.00000    4.62450    0.00000
Ar    0.00000    4.62450    1.54150
Ar    0.00000    4.62450    3.08300
Ar    0.00000    4.62450    4.62450
Ar    1.54150   -3.08300   -3.08300
Ar    1.54150   -3.08300   -1.54150
Ar    1.54150   -3.08300    0.00000
Ar    1.54150   -3.08300    1.54150
Ar    1.54150   -3.08300    3.08300
Ar    1.54150   -3.08300    4.62450
Ar    1.54150   -1.54150   -3.08300
Ar    1.54150   -1.54150   -1.54150
Ar    1.54150   -1.54150    0.00000
Ar    1.54150   -1.54150    1.54150
Ar    1.54150   -1.54150    3.08300
Ar    1.54150   -1.54150    4.62450
Ar    1.54150   -0.00000   -3.08300
Ar    1.54150   -0.00000   -1.54150
Ar    1.54150    0.00000    0.00000
Ar    1.54150    0.00000    1.54150
Ar    1.54150    0.00000    3.08300
Ar    1.54150    0.00000    4.62450
Ar    1.54150    1.54150   -3.08300
Ar    1.54150    1.54150   -1.54150
Ar    1.54150    1.54150    0.00000
Ar    1.54150    1.54150    1.54150
Ar    1.54150    1.54150    3.08300
Ar    1.54150    1.54150    4.62450
Ar    1.54150    3.08300   -3.08300
Ar    1.54150    3.08300   -1.54150
Ar    1.54150    3.08300    0.00000
Ar    1.54150    3.08300    1.54150
Ar    1.54150    3.08300    3.08300
Ar    1.54150    3.08300    4.62450
Ar    1.54150    4.62450   -3.08300
Ar    1.54150    4.62450   -1.54150
Ar    1.54150    4.62450    0.00000
Ar    1.54150    4.62450    1.54150
Ar    1.54150    4.62450    3.08300
Ar    1.54150    4.62450    4.62450
Ar    3.08300   -3.08300   -3.08300
Ar    3.08300   -3.08300   -1.54150
Ar    3.08300   -3.08300    0.00000
Ar    3.08300   -3.08300    1.54150
Ar    3.08300   -3.08300    3.08300
Ar    3.08300   -3.08300    4.62450
Ar    3.08300   -1.54150   -3.08300
Ar    3.08300   -1.54150   -1.54150
Ar    3.08300   -1.54150    0.00000
Ar    3.08300   -1.54150    1.54150
Ar    3.08300   -1.54150    3.08300
Ar    3.08300   -1.54150    4.62450
Ar    3.08300   -0.00000   -3.08300
Ar    3.08300   -0.00000   -1.54150
Ar    3.08300    0.00000    0.00000
Ar    3.08300    0.00000    1.54150
Ar    3.08300    0.00000    3.08300
Ar    3.08300    0.00000    4.62450
Ar    3.08300    1.54150   -3.08300
Ar    3.08300    1.54150   -1.54150
Ar    3.08300    1.54150    0.00000
Ar    3.08300    1.54150    1.54150
Ar    3.08300    1.54150    3.08300
Ar    3.08300    1.54150    4.62450
Ar    3.08300    3.08300   -3.08300
Ar    3.08300    3.08300   -1.54150
Ar    3.08300    3.08300    0.00000
Ar    3.08300    3.08300    1.54150
Ar    3.08300    3.08300    3.08300
Ar    3.08300    3.08300    4.62450
Ar    3.08300    4.62450   -3.08300
Ar    3.08300    4.62450   -1.54150
Ar    3.08300    4.62450    0.00000
Ar    3.08300    4.62450    1.54150
Ar    3.08300    4.62450    3.08300
Ar    3.08300    4.62450    4.62450
Ar    4.62450   -3.08300   -3.08300
Ar    4.62450   -3.08300   -1.54150
Ar    4.62450   -3.08300    0.00000
Ar    4.62450   -3.08300    1.54150
Ar    4.62450   -3.08300    3.08300
Ar    4.62450   -3.08300    4.62450
Ar    4.62450   -1.54150   -3.08300
Ar    4.62450   -1.54150   -1.54150
Ar    4.62450   -1.54150    0.00000
Ar    4.62450   -1.54150    1.54150
Ar    4.62450   -1.54150    3.08300
Ar    4.62450   -1.54150    4.62450
Ar    4.62450   -0.00000   -3.08300
Ar    4.62450   -0.00000   -1.54150
Ar    4.62450    0.00000    0.00000
Ar    4.62450    0.00000    1.54150
Ar    4.62450    0.00000    3.08300
Ar    4.62450    0.00000    4.62450
Ar    4.62450    1.54150   -3.08300
Ar    4.62450    1.54150   -1.54150
Ar    4.62450    1.54150    0.00000
Ar    4.62450    1.54150    1.54150
Ar    4.62450    1.54150    3.08300
Ar    4.62450    1.54150    4.62450
Ar    4.62450    3.08300   -3.08300
Ar    4.62450    3.08300   -1.54150
Ar    4.62450    3.08300    0.00000
Ar    4.62450    3.08300    1.54150
Ar    4.62450    3.08300    3.08300
Ar    4.62450    3.08300    4.62450
Ar    4.62450    4.62450   -3.08300
Ar    4.62450    4.62450   -1.54150
Ar    4.62450    4.62450    0.00000
Ar    4.62450    4.62450    1.54150
Ar    4.62450    4.62450    3.08300
Ar    4.62450    4.62450    4.62450
Ar   -2.31225   -2.31225   -3.08300
Ar   -2.31225   -2.31225   -1.54150
Ar   -2.31225   -2.31225    0.00000
Ar   -2.31225   -2.31225    1.54150
Ar   -2.31225   -2.31225    3.08300
Ar   -2.31225   -2.31225    4.62450
Ar   -2.31225   -0.77075   -3.08300
Ar   -2.31225   -0.77075   -1.54150
Ar   -2.31225   -0.77075    0.00000
Ar   -2.31225   -0.77075    1.54150
Ar   -2.31225   -0.77075    3.08300
Ar   -2.31225   -0.77075    4.62450
Ar   -2.31225    0.77075   -3.08300
Ar   -2.31225    0.77075   -1.54150
Ar   -2.31225    0.77075    0.00000
Ar   -2.31225    0.77075    1.54150
Ar   -2.31225    0.77075    3.08300
Ar   -2.31225    0.77075    4.62450
Ar   -2.31225    2.31225   -3.08300
Ar   -2.31225    2.31225   -1.54150
Ar   -2.31225    2.31225    0.00000
Ar   -2.31225    2.31225    1.54150
Ar   -2.31225    2.31225    3.08300
Ar   -2.31225    2.31225    4.62450
Ar   -2.31225    3.85375   -3.08300
Ar   -2.31225    3.85375   -1.54150
Ar   -2.31225    3.85375    0.00000
Ar   -2.31225    3.85375    1.54150
Ar   -2.31225    3.85375    3.08300
Ar   -2.31225    3.85375    4.62450
Ar   -0.77075   -2.31225   -3.08300
Ar   -0.77075   -2.31225   -1.54150
Ar   -0.77075   -2.31225    0.00000
Ar   -0.77075   -2.31225    1.54150
Ar   -0.77075   -2.31225    3.08300
Ar   -0.77075   -2.31225    4.62450
Ar   -0.77075   -0.77075   -3.08300
Ar   -0.77075   -0.77075   -1.54150
Ar   -0.77075   -0.77075    0.00000
Ar   -0.77075   -0.77075    1.54150
Ar   -0.77075   -0.77075    3.08300
Ar   -0.77075   -0.77075    4.62450
Ar   -0.77075    0.77075   -3.08300
Ar   -0.77075    0.77075   -1.54150
Ar   -0.77075    0.77075    0.00000
Ar   -0.77075    0.77075    1.54150
Ar   -0.77075    0.77075    3.08300
Ar   -0.77075    0.77075    4.62450
Ar   -0.77075    2.31225   -3.08300
Ar   -0.77075    2.31225   -1.54150
Ar   -0.77075    2.31225    0.00000
Ar   -0.77075    2.31225    1.54150
Ar   -0.77075    2.31225    3.08300
Ar   -0.77075    2.31225    4.62450
Ar   -0.77075    3.85375   -3.08300
Ar   -0.77075    3.85375   -1.54150
Ar   -0.77075    3.85375    0.00000
Ar   -0.77075    3.85375    1.54150
Ar   -0.77075    3.85375    3.08300
Ar   -0.77075    3.85375    4.62450
Ar    0.77075   -2.31225   -3.08300
Ar    0.77075   -2.31225   -1.54150
Ar    0.77075   -2.31225    0.00000
Ar    0.77075   -2.31225    1.54150
Ar    0.77075   -2.31225    3.08300
Ar    0.77075   -2.31225    4.62450
Ar    0.77075   -0.77075   -3.08300
Ar    0.77075   -0.77075   -1.54150
Ar    0.77075   -0.77075    0.00000
Ar    0.77075   -0.77075    1.54150
Ar    0.77075   -0.77075    3.08300
Ar    0.77075   -0.77075    4.62450
Ar    0.77075    0.77075   -3.08300
Ar    0.77075    0.77075   -1.54150
Ar    0.77075    0.77075    0.00000
Ar    0.77075    0.77075    1.54150
Ar    0.77075    0.77075    3.08300
Ar    0.77075    0.77075    4.62450
Ar    0.77075    2.31225   -3.08300
Ar    0.77075    2.31225   -1.54150
Ar    0.77075    2.31225    0.00000
Ar    0.77075    2.31225    1.54150
Ar    0.77075    2.31225    3.08300
Ar    0.77075    2.31225    4.62450
Ar    0.77075    3.85375   -3.08300
Ar    0.77075    3.85375   -1.54150
Ar    0.77075    3.85375    0.00000
Ar    0.77075    3.85375    1.54150
Ar    0.77075    3.85375    3.08300
Ar    0.77075    3.85375    4.62450
Ar    2.31225   -2.31225   -3.08300
Ar    2.31225   -2.31225   -1.54150
Ar    2.31225   -2.31225    0.00000
Ar    2.31225   -2.31225    1.54150
Ar    2.31225   -2.31225    3.08300
Ar    2.31225   -2.31225    4.62450
Ar    2.31225   -0.77075   -3.08300
Ar    2.31225   -0.77075   -1.54150
Ar    2.31225   -0.77075    0.00000
Ar    2.31225   -0.77075    1.54150
Ar    2.31225   -0.77075    3.08300
Ar    2.31225   -0.77075    4.62450
Ar    2.31225    0.77075   -3.08300
Ar    2.31225    0.77075   -1.54150
Ar    2.31225    0.77075    0.00000
Ar    2.31225    0.77075    1.54150
Ar    2.31225    0.77075    3.08300
Ar    2.31225    0.77075    4.62450
Ar    2.31225    2.31225   -3.08300
Ar    2.31225    2.31225   -1.54150
Ar    2.31225    2.31225    0.00000
Ar    2.31225    2.31225    1.54150
Ar    2.31225    2.31225    3.08300
Ar    2.31225    2.31225    4.62450
Ar    2.31225    3.85375   -3.08300
Ar    2.31225    3.85375   -1.54150
Ar    2.31225    3.85375    0.00000
Ar    2.31225    3.85375    1.54150
Ar    2.31225    3.85375    3.08300
Ar    2.31225    3.85375    4.62450
Ar    3.85375   -2.31225   -3.08300
Ar    3.85375   -2.31225   -1.54150
Ar    3.85375   -2.31225    0.00000
Ar    3.85375   -2.31225    1.54150
Ar    3.85375   -2.31225    3.08300
Ar    3.85375   -2.31225    4.62450
Ar    3.85375   -0.77075   -3.08300
Ar    3.85375   -0.77075   -1.54150
Ar    3.85375   -0.77075    0.00000
Ar    3.85375   -0.77075    1.54150
Ar    3.85375   -0.77075    3.08300
Ar    3.85375   -0.77075    4.62450
Ar    3.85375    0.77075   -3.08300
Ar    3.85375    0.77075   -1.54150
Ar    3.85375    0.77075    0.00000
Ar    3.85375    0.77075    1.54150
Ar    3.85375    0.77075    3.08300
Ar    3.85375    0.77075    4.62450
Ar    3.85375    2.31225   -3.08300
Ar    3.85375    2.31225   -1.54150
Ar    3.85375    2.31225    0.00000
Ar    3.85375    2.31225    1.54150
Ar    3.85375    2.31225    3.08300
Ar    3.85375    2.31225    4.62450
Ar    3.85375    3.85375   -3.08300
Ar    3.85375    3.85375   -1.54150
Ar    3.85375    3.85375    0.00000
Ar    3.85375    3.85375    1.54150
Ar    3.85375    3.85375    3.08300
Ar    3.85375    3.85375    4.62450
Ar   -2.31225   -3.08300   -2.31225
Ar   -2.31225   -3.08300   -0.77075
Ar   -2.31225   -3.08300    0.77075
Ar   -2.31225   -3.08300    2.31225
Ar   -2.31225   -3.08300    3.85375
Ar   -2.31225   -1.54150   -2.31225
Ar   -2.31225   -1.54150   -0.77075
Ar   -2.31225   -1.54150    0.77075
Ar   -2.31225   -1.54150    2.31225
Ar   -2.31225   -1.54150    3.85375
Ar   -2.31225   -0.00000   -2.31225
Ar   -2.31225   -0.00000   -0.77075
Ar   -2.31225    0.00000    0.77075
Ar   -2.31225    0.00000    2.31225
Ar   -2.31225    0.00000    3.85375
Ar   -2.31225    1.54150   -2.31225
Ar   -2.31225    1.54150   -0.77075
Ar   -2.31225    1.54150    0.77075
Ar   -2.31225    1.54150    2.31225
Ar   -2.31225    1.54150    3.85375
Ar   -2.31225    3.08300   -2.31225
Ar   -2.31225    3.08300   -0.77075
Ar   -2.31225    3.08300    0.77075
Ar   -2.31225    3.08300    2.31225
Ar   -2.31225    3.08300    3.85375
Ar   -2.31225    4.62450   -2.31225
Ar   -2.31225    4.62450   -0.77075
Ar   -2.31225    4.62450    0.77075
Ar   -2.31225    4.62450    2.31225
Ar   -2.31225    4.62450    3.85375
Ar   -0.77075   -3.08300   -2.31225
Ar   -0.77075   -3.08300   -0.77075
Ar   -0.77075   -3.08300    0.77075
Ar   -0.77075   -3.08300    2.31225
Ar   -0.77075   -3.08300    3.85375
Ar   -0.77075   -1.54150   -2.31225
Ar   -0.77075   -1.54150   -0.77075
Ar   -0.77075   -1.54150    0.77075
Ar   -0.77075   -1.54150    2.31225
Ar   -0.77075   -1.54150    3.85375
Ar   -0.77075   -0.00000   -2.31225
Ar   -0.77075   -0.00000   -0.77075
Ar   -0.77075    0.00000    0.77075
Ar   -0.77075    0.00000    2.31225
Ar   -0.77075    0.00000    3.85375
Ar   -0.77075    1.54150   -2.31225
Ar   -0.77075    1.54150   -0.77075
Ar   -0.77075    1.54150    0.77075
Ar   -0.77075    1.54150    2.31225
Ar   -0.77075    1.54150    3.85375
Ar   -0.77075    3.08300   -2.31225
Ar   -0.77075    3.08300   -0.77075
Ar   -0.77075    3.08300    0.77075
Ar   -0.77075    3.08300    2.31225
Ar   -0.77075    3.08300    3.85375
Ar   -0.77075    4.62450   -2.31225
Ar   -0.77075    4.62450   -0.77075
Ar   -0.77075    4.62450    0.77075
Ar   -0.77075    4.62450    2.31225
Ar   -0.77075    4.62450    3.85375
Ar    0.77075   -3.08300   -2.31225
Ar    0.77075   -3.08300   -0.77075
Ar    0.77075   -3.08300    0.77075
Ar    0.77075   -3.08300    2.31225
Ar    0.77075   -3.08300    3.85375
Ar    0.77075   -1.54150   -2.31225
Ar    0.77075   -1.54150   -0.77075
Ar    0.77075   -1.54150    0.77075
Ar    0.77075   -1.54150    2.31225
Ar    0.77075   -1.54150    3.85375
Ar    0.77075   -0.00000   -2.31225
Ar    0.77075   -0.00000   -0.77075
Ar    0.77075    0.00000    0.77075
Ar    0.77075    0.00000    2.31225
Ar    0.77075    0.00000    3.85375
Ar    0.77075    1.54150   -2.31225
Ar    0.77075    1.54150   -0.77075
Ar    0.77075    1.54150    0.77075
Ar    0.77075    1.54150    2.31225
Ar    0.77075    1.54150    3.85375
Ar    0.77075    3.08300   -2.31225
Ar    0.77075    3.08300   -0.77075
Ar    0.77075    3.08300    0.77075
Ar    0.77075    3.08300    2.31225
Ar    0.77075    3.08300    3.85375
Ar    0.77075    4.62450   -2.31225
Ar    0.77075    4.62450   -0.77075
Ar    0.77075    4.62450    0.77075
Ar    0.77075    4.62450    2.31225
Ar    0.77075    4.62450    3.85375
Ar    2.31225   -3.08300   -2.31225
Ar    2.31225   -3.08300   -0.77075
Ar    2.31225   -3.08300    0.77075
Ar    2.31225   -3.08300    2.31225
Ar    2.31225   -3.08300    3.85375
Ar    2.31225   -1.54150   -2.31225
Ar    2.31225   -1.54150   -0.77075
Ar    2.31225   -1.54150    0.77075
Ar    2.31225   -1.54150    2.31225
Ar    2.31225   -1.54150    3.85375
Ar    2.31225   -0.00000   -2.31225
Ar    2.31225   -0.00000   -0.77075
Ar    2.31225    0.00000    0.77075
Ar    2.31225    0.00000    2.31225
Ar    2.31225    0.00000    3.85375
Ar    2.31225    1.54150   -2.31225
Ar    2.31225    1.54150   -0.77075
Ar    2.31225    1.54150    0.77075
Ar    2.31225    1.54150    2.31225
Ar    2.31225    1.54150    3.85375
Ar    2.31225    3.08300   -2.31225
Ar    2.31225    3.08300   -0.77075
Ar    2.31225    3.08300    0.77075
Ar    2.31225    3.08300    2.31225
Ar    2.31225    3.08300    3.85375
Ar    2.31225    4.62450   -2.31225
Ar    2.31225    4.62450   -0.77075
Ar    2.31225    4.62450    0.77075
Ar    2.31225    4.62450    2.31225
Ar    2.31225    4.62450    3.85375
Ar    3.85375   -3.08300   -2.31225
Ar    3.85375   -3.08300   -0.77075
Ar    3.85375   -3.08300    0.77075
Ar    3.85375   -3.08300    2.31225
Ar    3.85375   -3.08300    3.85375
Ar    3.85375   -1.54150   -2.31225
Ar    3.85375   -1.54150   -0.77075
Ar    3.85375   -1.54150    0.77075
Ar    3.85375   -1.54150    2.31225
Ar    3.85375   -1.54150    3.85375
Ar    3.85375   -0.00000   -2.31225
Ar    3.85375   -0.00000   -0.77075
Ar    3.85375    0.00000    0.77075
Ar    3.85375    0.00000    2.31225
Ar    3.85375    0.00000    3.85375
Ar    3.85375    1.54150   -2.31225
Ar    3.85375    1.54150   -0.77075
Ar    3.85375    1.54150    0.77075
Ar    3.85375    1.54150    2.31225
Ar    3.85375    1.54150    3.85375
Ar    3.85375    3.08300   -2.31225
Ar    3.85375    3.08300   -0.77075
Ar    3.85375    3.08300    0.77075
Ar    3.85375    3.08300    2.31225
Ar    3.85375    3.08300    3.85375
Ar    3.85375    4.62450   -2.31225
Ar    3.85375    4.62450   -0.77075
Ar    3.85375    4.62450    0.77075
Ar    3.85375    4.62450    2.31225
Ar    3.85375    4.62450    3.85375
Ar   -3.08300   -2.31225   -2.31225
Ar   -3.08300   -2.31225   -0.77075
Ar   -3.08300   -2.31225    0.77075
Ar   -3.08300   -2.31225    2.31225
Ar   -3.08300   -2.31225    3.85375
Ar   -3.08300   -0.77075   -2.31225
Ar   -3.08300   -0.77075   -0.77075
Ar   -3.08300   -0.77075    0.77075
Ar   -3.08300   -0.77075    2.31225
Ar   -3.08300   -0.77075    3.85375
Ar   -3.08300    0.77075   -2.31225
Ar   -3.08300    0.77075   -0.77075
Ar   -3.08300    0.77075    0.77075
Ar   -3.08300    0.77075    2.31225
Ar   -3.08300    0.77075    3.85375
Ar   -3.08300    2.31225   -2.31225
Ar   -3.08300    2.31225   -0.77075
Ar   -3.08300    2.31225    0.77075
Ar   -3.08300    2.31225    2.31225
Ar   -3.08300    2.31225    3.85375
Ar   -3.08300    3.85375   -2.31225
Ar   -3.08300    3.85375   -0.77075
Ar   -3.08300    3.85375    0.77075
Ar   -3.08300    3.85375    2.31225
Ar   -3.08300    3.85375    3.85375
Ar   -1.54150   -2.31225   -2.31225
Ar   -1.54150   -2.31225   -0.77075
Ar   -1.54150   -2.31225    0.77075
Ar   -1.54150   -2.31225    2.31225
Ar   -1.54150   -2.31225    3.85375
Ar   -1.54150   -0.77075   -2.31225
Ar   -1.54150   -0.77075   -0.77075
Ar   -1.54150   -0.77075    0.77075
Ar   -1.54150   -0.77075    2.31225
Ar   -1.54150   -0.77075    3.85375
Ar   -1.54150    0.77075   -2.31225
Ar   -1.54150    0.77075   -0.77075
Ar   -1.54150    0.77075    0.77075
Ar   -1.54150    0.77075    2.31225
Ar   -1.54150    0.77075    3.85375
Ar   -1.54150    2.31225   -2.31225
Ar   -1.54150    2.31225   -0.77075
Ar   -1.54150    2.31225    0.77075
Ar   -1.54150    2.31225    2.31225
Ar   -1.54150    2.31225    3.85375
Ar   -1.54150    3.85375   -2.31225
Ar   -1.54150    3.85375   -0.77075
Ar   -1.54150    3.85375    0.77075
Ar   -1.54150    3.85375    2.31225
Ar   -1.54150    3.85375    3.85375
Ar   -0.00000   -2.31225   -2.31225
Ar   -0.00000   -2.31225   -0.77075
Ar   -0.00000   -2.31225    0.77075
Ar    0.00000   -2.31225    2.31225
Ar    0.00000   -2.31225    3.85375
Ar   -0.00000   -0.77075   -2.31225
Ar   -0.00000   -0.77075   -0.77075
Ar    0.00000   -0.77075    0.77075
Ar    0.00000   -0.77075    2.31225
Ar    0.00000   -0.77075    3.85375
Ar   -0.00000    0.77075   -2.31225
Ar    0.00000    0.77075   -0.77075
Ar    0.00000    0.77075    0.77075
Ar    0.00000    0.77075    2.31225
Ar    0.00000    0.77075    3.85375
Ar    0.00000    2.31225   -2.31225
Ar    0.00000    2.31225   -0.77075
Ar    0.00000    2.31225    0.77075
Ar    0.00000    2.31225    2.31225
Ar    0.00000    2.31225    3.85375
Ar    0.00000    3.85375   -2.31225
Ar    0.00000    3.85375   -0.77075
Ar    0.00000    3.85375    0.77075
Ar    0.00000    3.85375    2.31225
Ar    0.00000    3.85375    3.85375
Ar    1.54150   -2.31225   -2.31225
Ar    1.54150   -2.31225   -0.77075
Ar    1.54150   -2.31225    0.77075
Ar    1.54150   -2.31225    2.31225
Ar    1.54150   -2.31225    3.85375
Ar    1.54150   -0.77075   -2.31225
Ar    1.54150   -0.77075   -0.77075
Ar    1.54150   -0.77075    0.77075
Ar    1.54150   -0.77075    2.31225
Ar    1.54150   -0.77075    3.85375
Ar    1.54150    0.77075   -2.31225
Ar    1.54150    0.77075   -0.77075
Ar    1.54150    0.77075    0.77075
Ar    1.54150    0.77075    2.31225
Ar    1.54150    0.77075    3.85375
Ar    1.54150    2.31225   -2.31225
Ar    1.54150    2.31225   -0.77075
Ar    1.54150    2.31225    0.77075
Ar    1.54150    2.31225    2.31225
Ar    1.54150    2.31225    3.85375
Ar    1.54150    3.85375   -2.31225
Ar    1.54150    3.85375   -0.77075
Ar    1.54150    3.85375    0.77075
Ar    1.54150    3.85375    2.31225
Ar    1.54150    3.85375    3.85375
Ar    3.08300   -2.31225   -2.31225
Ar    3.08300   -2.31225   -0.77075
Ar    3.08300   -2.31225    0.77075
Ar    3.08300   -2.31225    2.31225
Ar    3.08300   -2.31225    3.85375
Ar    3.08300   -0.77075   -2.31225
Ar    3.08300   -0.77075   -0.77075
Ar    3.08300   -0.77075    0.77075
Ar    3.08300   -0.77075    2.31225
Ar    3.08300   -0.77075    3.85375
Ar    3.08300    0.77075   -2.31225
Ar    3.08300    0.77075   -0.77075
Ar    3.08300    0.77075    0.77075
Ar    3.08300    0.77075    2.31225
Ar    3.08300    0.77075    3.85375
Ar    3.08300    2.31225   -2.31225
Ar    3.08300    2.31225   -0.77075
Ar    3.08300    2.31225    0.77075
Ar    3.08300    2.31225    2.31225
Ar    3.08300    2.31225    3.85375
Ar    3.08300    3.85375   -2.31225
Ar    3.08300    3.85375   -0.77075
Ar    3.08300    3.85375    0.77075
Ar    3.08300    3.85375    2.31225
Ar    3.08300    3.85375    3.85375
Ar    4.62450   -2.31225   -2.31225
Ar    4.62450   -2.31225   -0.77075
Ar    4.62450   -2.31225    0.77075
Ar    4.62450   -2.31225    2.31225
Ar    4.62450   -2.31225    3.85375
Ar    4.62450   -0.77075   -2.31225
Ar    4.62450   -0.77075   -0.77075
Ar    4.62450   -0.77075    0.77075
Ar    4.62450   -0.77075    2.31225
Ar    4.62450   -0.77075    3.85375
Ar    4.62450    0.77075   -2.31225
Ar    4.62450    0.77075   -0.77075
Ar    4.62450    0.77075    0.77075
Ar    4.62450    0.77075    2.31225
Ar    4.62450    0.77075    3.85375
Ar    4.62450    2.31225   -2.31225
Ar    4.62450    2.31225   -0.77075
Ar    4.62450    2.31225    0.77075
Ar    4.62450    2.31225    2.31225
Ar    4.62450    2.31225    3.85375
Ar    4.62450    3.85375   -2.31225
Ar    4.62450    3.85375   -0.77075
Ar    4.62450    3.85375    0.77075
Ar    4.62450    3.85375    2.31225
Ar    4.62450    3.85375    3.85375
