32
Ge	0	0	0
Si	2.715	2.715	0
Si	1.3575	1.3575	1.3575
Ge	4.0725	4.0725	1.3575
Ge	2.715	0	2.715
Si	0	2.715	2.715
Ge	4.0725	1.3575	4.0725
Ge	1.3575	4.0725	4.0725
Ge	0	0	5.43
Si	2.715	2.715	5.43
Si	1.3575	1.3575	6.7875
Si	4.0725	4.0725	6.7875
Ge	2.715	0	8.145
Si	0	2.715	8.145
Ge	4.0725	1.3575	9.5025
Ge	1.3575	4.0725	9.5025
Ge	0	5.43	0
Ge	2.715	8.145	0
Ge	1.3575	6.7875	1.3575
Si	4.0725	9.5025	1.3575
Si	2.715	5.43	2.715
Si	0	8.145	2.715
Si	4.0725	6.7875	4.0725
Si	1.3575	9.5025	4.0725
Ge	0	5.43	5.43
Ge	2.715	8.145	5.43
Si	1.3575	6.7875	6.7875
Ge	4.0725	9.5025	6.7875
Ge	2.715	5.43	8.145
Si	0	8.145	8.145
Si	4.0725	6.7875	9.5025
Ge	1.3575	9.5025	9.5025
